src/tests/data/grids/DGS/Reduced_SPEN_v9_south_west_v3.dgs
********************************************************************************
*
* DIgSILENT (R) DGS Export V1.8.4
* Copyright 1997-2026 DIgSILENT GmbH. All rights reserved.
*
* DIgSILENT (C) PowerFactory V25.0.3.0
*
* Date:     04/29/2026 12:35
* Project:  Reduced_SPEN_v9_south_west_v3 (Study Case: Y01 (2024/25))
*
********************************************************************************


$$General;FID(a:40);Descr(a:40);Val(a:255)
  1;Version;7.0


$$ElmCoup;FID(a:40);OP(a:1);loc_name(a:80);fold_id(p);typ_id(p);on_off(i);aUsage(a:4);nphase(i);nneutral(i)
  2;C;brk_SHRU3A_SHRU3B_1;19;;1;cbk;3;0


$$ElmGenstat;FID(a:40);OP(a:1);loc_name(a:80);fold_id(p);outserv(i);sgn(r);cosn(r);cCategory(a);av_mode(a);mode_inp(a:6);pgini(r);qgini(r);sgini(r);cosgini(r);pf_recap(i);phtech(i);ngnum(i);ip_ctrl(i);usetp(r);phiini(r);Kpf(r);scale0(r);ddroop(r);usp_max(r);usp_min(r);cQ_min(r);cQ_max(r)
  3;C;EMH_SHRU3A_H2;38;0;100;1;Renewable generation;constq;DEF;0;0;0;1;0;0;1;0;1;0;0;1;1;1,1;0,9;-0,099;0,099
  4;C;EMH_SHRU3B_H2;38;0;100;1;Renewable generation;constq;DEF;0;0;0;1;0;0;1;0;1;0;0;1;1;1,1;0,9;-0,099;0,099
  5;C;EMO_SHRU3A_N2;38;0;100;1;Renewable generation;constq;DEF;0;0;0;1;0;0;1;0;1;0;0;1;1;1,1;0,9;-0,099;0,099
  6;C;EMO_SHRU3B_N2;38;0;100;1;Renewable generation;constq;DEF;0;0;0;1;0;0;1;0;1;0;0;1;1;1,1;0,9;-0,099;0,099
  7;C;EMP_SHRU3A_P2;38;0;100;1;Storage;constq;DEF;0;0;0;1;0;0;1;0;1;0;0;1;1;1,1;0,9;-0,099;0,099
  8;C;EMP_SHRU3B-_P2;38;0;100;1;Storage;constq;DEF;0;0;0;1;0;0;1;0;1;0;0;1;1;1,1;0,9;-0,099;0,099
  9;C;EMS_SHRU3A_S2;38;0;100;1;Photovoltaic;constq;DEF;0;0;0;1;0;0;1;0;1;0;0;1;1;1,1;0,9;-0,099;0,099
  10;C;EMS_SHRU3B_S2;38;0;100;1;Photovoltaic;constq;DEF;0;0;0;1;0;0;1;0;1;0;0;1;1;1,1;0,9;-0,099;0,099
  11;C;EMW_SHRU3A_W2;38;1;100;1;Wind;constq;DEF;0;0;0;1;0;0;1;0;1;0;0;1;1;1,1;0,9;-0,099;0,099
  12;C;EMW_SHRU3B_W2;38;1;100;1;Wind;constq;DEF;0;0;0;1;0;0;1;0;1;0;0;1;1;1,1;0,9;-0,099;0,099


$$ElmLne;FID(a:40);OP(a:1);loc_name(a:80);fold_id(p);typ_id(p);dline(r);fline(r);GPScoords:MATRIX(a);nlnum(i);inAir(i)
  13;C;Line(1);19;1248;1000;1;;1;0
  14;C;Line;19;1248;1000;1;;1;0


$$ElmLod;FID(a:40);OP(a:1);loc_name(a:80);fold_id(p);typ_id(p);mode_inp(a:6);slini(r);plini(r);qlini(r);coslini(r);pf_recap(i);scale0(r);i_scale(i);outserv(i);classif(a:40)
  15;C;lod_SHRU3A_1;19;1249;DEF;29,38783;29,344;1,6045;0,998508;0;1;1;0;
  16;C;lod_SHRU3B_1;19;1249;DEF;29,38783;29,344;1,6045;0,998508;0;1;1;0;


$$ElmNet;FID(a:40);OP(a:1);loc_name(a:80);fold_id(p);frnom(r);pDiagram(p)
  17;C;NGET;;50;
  18;C;SHET;;50;
  19;C;SPTL;;50;


$$ElmSvs;FID(a:40);OP(a:1);loc_name(a:80);fold_id(p);qmax(r);tcrmax(r);nxcap(i);qmin(r);nfixcap(i);Qfixcap(r);outserv(i);i_ctrl(i);i_droop(i);tcrqact(r);nncap(i);usetp(r);Srated(r);ddroop(r);qsetp(r)
  20;C;Static Var System;19;0;0;0;0;0;0;0;0;0;0;0;1;0;0;0


$$ElmTerm;FID(a:40);OP(a:1);loc_name(a:80);fold_id(p);typ_id(p);systype(i);iUsage(i);uknom(r);unknom(r);iminus(i);outserv(i);GPSlat(r);GPSlon(r);vtarget(r)
  21;C;SHRU2Q;19;;0;0;275;158,7713;0;0;0;0;1
  22;C;SHRU2R;19;;0;0;275;158,7713;0;0;0;0;1
  23;C;SHRU3A;19;;0;0;33;19,05256;0;0;0;0;1
  24;C;SHRU3B;19;;0;0;33;19,05256;0;0;0;0;1
  25;C;Terminal;19;;0;0;275;158,7713;0;0;0;0;1


$$ElmTr2;FID(a:40);OP(a:1);loc_name(a:80);fold_id(p);typ_id(p);ntnum(i);outserv(i);nntap(i);i_auto(i);ntrcn(i);usetp(r);usp_low(r);usp_up(r);t2ldc(i)
  26;C;trf_SHRU2R_SHRU3-_1;19;1250;1;0;0;0;1;1,01;1;1,025;1


$$ElmTr3;FID(a:40);OP(a:1);loc_name(a:80);fold_id(p);nt3nm(i);typ_id(p);outserv(i);n3tap_h(i);n3tap_m(i);n3tap_l(i);i_auto_hl(i);ictrlside(i);ntrcn(i);t3ldc(i);usetp(r);usp_low(r);usp_up(r);chr_name(a:40);for_name(a:100);mTaps:SIZEROW(i);mTaps:SIZECOL(i);iMeasTap(i)
  27;C;tr3_SHRU2Q_SHRU3-_1;19;1;1251;0;0;0;0;0;0;1;1;1,01;1;1,025;T152;;1;0;0


$$ElmXnet;FID(a:40);OP(a:1);loc_name(a:80);fold_id(p);snss(r);rntxn(r);z2tz1(r);snssmin(r);rntxnmin(r);z2tz1min(r);chr_name(a:40);bustp(a:2);pgini(r);qgini(r);phiini(r);usetp(r);outserv(i);Kpf(r);K(r);cmax(r);xd(r);xq(r)
  28;C;External Grid;19;10000;0,1;1;8000;0,1;1;;SL;0;0;0;1;0;0;0;1,1;0,2;0,2


$$ElmZone;FID(a:40);OP(a:1);loc_name(a:80);fold_id(p);icolor(i);curscale(r)
  29;C;S6;;1;1


$$IntFolder;FID(a:40);OP(a:1);loc_name(a:80);fold_id(p)
  30;C;Layers;1193
  31;C;Settings;1193
  32;C;Layers;1194
  33;C;Settings;1194
  34;C;Layers;1195
  35;C;Settings;1195
  36;C;Layers;1196
  37;C;Settings;1196
  38;C;Embedded Generation;19
  39;C;Lines;40
  40;C;SPTL;
  41;C;Load Models;40
  42;C;275/33kV;43
  43;C;Transformers;40


$$IntGrf;FID(a:40);OP(a:1);loc_name(a:80);fold_id(p);iCol(i);iVis(i);iLevel(i);rCenterX(r);rCenterY(r);sSymNam(a:80);pDataObj(p);iRot(i);rSizeX(r);rSizeY(r)
  44;C;BOWB0A_Graph;1193;1;1;1;301,875;39,375;TermStrip;;0;1;1
  45;C;BOWB0B_Graph;1193;1;1;1;249,375;65,625;TermStrip;;0;1;1
  46;C;BOWB31_Graph;1193;1;1;1;310,625;78,75;TermStrip;;0;0,666666;1
  47;C;BOWB32_Graph;1193;1;1;1;280;96,25;TermStrip;;0;0,666666;1
  48;C;COCK2-_Graph;1193;1;1;1;455;341,25;TermStrip;;0;2,333333;1
  49;C;COCK3-_Graph;1193;1;1;1;459,375;297,5;TermStrip;;0;2,666667;1
  50;C;DEWP2Q_Graph;1193;1;1;1;428,75;144,375;TermStrip;;0;0,666666;1
  51;C;DEWP2R_Graph;1193;1;1;1;398,125;144,375;TermStrip;;0;0,666666;1
  52;C;DEWP3-_Graph;1193;1;1;1;415,625;122,5;TermStrip;;0;3,333333;1
  53;C;Graphical Net Object110;1193;-16777216;1;1;380,625;393,75;d_net;;180;1;1
  54;C;Graphical Net Object119;1193;-16777216;1;1;308,4375;59,0625;d_tr2;;354;1;1
  55;C;Graphical Net Object120;1193;-16777216;1;1;266,875;80,9375;d_tr2;;319;1;1
  56;C;Graphical Net Object121;1193;-16777216;1;1;302,6042;321,5625;d_tr2;;18;1;1
  57;C;Graphical Net Object122;1193;-16777216;1;1;271,9792;347,8125;d_tr2;;262;1;1
  58;C;Graphical Net Object123;1193;-16777216;1;1;295,3125;332,5;d_tr2;;344;1;1
  59;C;Graphical Net Object124;1193;-16777216;1;1;304,0625;304,0625;d_tr2;;322;1;1
  60;C;Graphical Net Object128;1193;-16777216;1;1;407,6042;183,75;d_tr2;;344;1;1
  61;C;Graphical Net Object129;1193;-16777216;1;1;397,3958;183,75;d_tr2;;339;1;1
  62;C;Graphical Net Object130;1193;-16777216;1;1;243,6875;297,5;d_tr2;26;270;1;1
  63;C;Graphical Net Object142;1193;-16777216;1;1;418,0312;354,375;d_lin;;239;1;1
  64;C;Graphical Net Object144;1193;-16777216;1;1;419,5625;301,875;Compd_lin;;337;1;1
  65;C;Graphical Net Object145;1193;-16777216;1;1;395,9375;170,625;d_lin;;185;1;1
  66;C;Graphical Net Object146;1193;-16777216;1;1;424,375;170,625;d_lin;;189;1;1
  67;C;Graphical Net Object162;1193;-16777216;1;1;398,5625;229,6875;d_lin;;359;1;1
  68;C;Graphical Net Object163;1193;-16777216;1;1;385,4375;315;d_lin;;180;1;1
  69;C;Graphical Net Object164;1193;-16777216;1;1;412,5625;229,6875;d_lin;;5;1;1
  70;C;Graphical Net Object165;1193;-16777216;1;1;282,1875;310,625;d_lin;;295;1;1
  71;C;Graphical Net Object166;1193;-16777216;1;1;257,3958;332,5;d_lin;;294;1;1
  72;C;Graphical Net Object168;1193;-16777216;1;1;280;301,875;d_genstat;;0;1;1
  73;C;Graphical Net Object187;1193;-16777216;1;1;331,9167;356,5625;Compd_lin;;108;1;1
  74;C;Graphical Net Object188;1193;-16777216;1;1;343;345,625;Compd_lin;;124;1;1
  75;C;Graphical Net Object189;1193;-16777216;1;1;167,125;288,75;d_genstat;11;0;1;1
  76;C;Graphical Net Object190;1193;-16777216;1;1;167,125;323,75;d_genstat;9;180;1;1
  77;C;Graphical Net Object191;1193;-16777216;1;1;181,125;288,75;d_genstat;3;0;1;1
  78;C;Graphical Net Object192;1193;-16777216;1;1;415,625;153,125;d_genstat;;0;1;1
  79;C;Graphical Net Object194;1193;-16777216;1;1;186,375;280;d_genstat;10;0;1;1
  80;C;Graphical Net Object195;1193;-16777216;1;1;196,875;315;d_genstat;8;180;1;1
  81;C;Graphical Net Object196;1193;-16777216;1;1;202,125;280;d_genstat;6;0;1;1
  82;C;Graphical Net Object197;1193;-16777216;1;1;181,125;323,75;d_genstat;5;180;1;1
  83;C;Graphical Net Object198;1193;-16777216;1;1;210;315;d_genstat;4;180;1;1
  84;C;Graphical Net Object199;1193;-16777216;1;1;217,875;280;d_genstat;12;0;1;1
  85;C;Graphical Net Object200;1193;-16777216;1;1;195,125;288,75;d_genstat;7;0;1;1
  86;C;Graphical Net Object226;1193;-16777216;1;1;301,875;21,875;d_asmg;;0;1;1
  87;C;Graphical Net Object227;1193;-16777216;1;1;249,375;48,125;d_asmg;;0;1;1
  88;C;Graphical Net Object230;1193;-16777216;1;1;448,5833;319,375;d_tr2;;330;1;1
  89;C;Graphical Net Object231;1193;-16777216;1;1;460,5417;319,375;d_tr2;;330;1;1
  90;C;Graphical Net Object235;1193;-16777216;1;1;437,8125;133,4375;d_tr2;;40;1;1
  91;C;Graphical Net Object237;1193;-16777216;1;1;391,25;133,4375;d_tr2;;328;1;1
  92;C;Graphical Net Object250;1193;-16777216;1;1;459,375;280;d_genstat;;0;1;1
  93;C;Graphical Net Object252;1193;-16777216;1;1;415,625;188,125;d_genstat;;180;1;1
  94;C;Graphical Net Object253;1193;-16777216;1;1;323,75;118,125;d_genstat;;0;1;1
  95;C;Graphical Net Object256;1193;-16777216;1;1;424,375;105;d_genstat;;0;1;1
  96;C;Graphical Net Object269;1193;-16777216;1;1;196,4375;301,875;d_coupleRect;2;289;1;1
  97;C;Graphical Net Object270;1193;-16777216;1;1;344,1667;166,25;d_ser_rea;;169;1;1
  98;C;Graphical Net Object271;1193;-16777216;1;1;355,8333;164,0625;d_ser_rea;;174;1;1
  99;C;Graphical Net Object273;1193;-16777216;1;1;195,125;323,75;d_load;15;180;1;1
  100;C;Graphical Net Object274;1193;-16777216;1;1;223,125;315;d_load;16;180;1;1
  101;C;Graphical Net Object275;1193;-16777216;1;1;396,875;140;d_genstat;;180;1;1
  102;C;Graphical Net Object277;1193;-16777216;1;1;459,375;315;d_genstat;;180;1;1
  103;C;Graphical Net Object278;1193;-16777216;1;1;294,5833;153,125;d_genstat;;180;1;1
  104;C;Graphical Net Object281;1193;-16777216;1;1;256,6667;336,875;d_genstat;;180;1;1
  105;C;Graphical Net Object284;1193;-16777216;1;1;227,5;301,875;auto-transformer;27;0;1;1
  106;C;Graphical Net Object287;1193;-16777216;1;1;389,375;105;d_genstat;;0;1;1
  107;C;Graphical Net Object288;1193;-16777216;1;1;441,875;280;d_genstat;;0;1;1
  108;C;Graphical Net Object290;1193;-16777216;1;1;338,3333;118,125;d_genstat;;0;1;1
  109;C;Graphical Net Object293;1193;-16777216;1;1;262,5;301,875;d_genstat;;0;1;1
  110;C;Graphical Net Object294;1193;-16777216;1;1;398,125;153,125;d_genstat;;0;1;1
  111;C;Graphical Net Object303;1193;-16777216;1;1;409,375;140;d_genstat;;180;1;1
  112;C;Graphical Net Object304;1193;-16777216;1;1;471,0417;315;d_genstat;;180;1;1
  113;C;Graphical Net Object305;1193;-16777216;1;1;323,75;153,125;d_genstat;;180;1;1
  114;C;Graphical Net Object307;1193;-16777216;1;1;268,3333;336,875;d_genstat;;180;1;1
  115;C;Graphical Net Object309;1193;-16777216;1;1;427,2917;188,125;d_genstat;;180;1;1
  116;C;Graphical Net Object310;1193;-16777216;1;1;352,9167;118,125;d_genstat;;0;1;1
  117;C;Graphical Net Object315;1193;-16777216;1;1;245;83,125;d_svs;;180;1;1
  118;C;Graphical Net Object316;1193;-16777216;1;1;297,5;56,875;d_svs;;180;1;1
  119;C;Graphical Net Object320;1193;-16777216;1;1;297,5;301,875;d_genstat;;0;1;1
  120;C;Graphical Net Object321;1193;-16777216;1;1;433,125;153,125;d_genstat;;0;1;1
  121;C;Graphical Net Object322;1193;-16777216;1;1;406,875;105;d_genstat;;0;1;1
  122;C;Graphical Net Object325;1193;-16777216;1;1;476,875;280;d_genstat;;0;1;1
  123;C;Graphical Net Object329;1193;-16777216;1;1;309,8958;107,1875;Compd_lin;;181;1;1
  124;C;Graphical Net Object330;1193;-16777216;1;1;287,2917;115,9375;Compd_lin;;160;1;1
  125;C;Graphical Net Object333;1193;-16777216;1;1;364;229,6875;d_tr2;;337;1;1
  126;C;Graphical Net Object334;1193;-16777216;1;1;373,625;227,5;d_tr2;;337;1;1
  127;C;Graphical Net Object345;1193;-16777216;1;1;482,7083;315;d_load;;180;1;1
  128;C;Graphical Net Object346;1193;-16777216;1;1;421,875;140;d_load;;180;1;1
  129;C;Graphical Net Object351;1193;-16777216;1;1;288,75;266,875;d_load;;0;1;1
  130;C;Graphical Net Object353;1193;-16777216;1;1;309,1667;153,125;d_load;;180;1;1
  131;C;Graphical Net Object355;1193;-16777216;1;1;250,8333;332,5;d_load;;0;1;1
  132;C;Graphical Net Object356;1193;-16777216;1;1;280;336,875;d_load;;180;1;1
  133;C;Graphical Net Object357;1193;-16777216;1;1;438,9583;188,125;d_load;;180;1;1
  134;C;Graphical Net Object364;1193;-16777216;1;1;448,875;323,75;d_shunt;;0;1;1
  135;C;Graphical Net Object369;1193;-16777216;1;1;441,875;105;d_shunt;;0;1;1
  136;C;Graphical Net Object371;1193;-16777216;1;1;434,375;140;d_shunt;;180;1;1
  137;C;KAIM2-_Graph;1193;1;1;1;393,75;262,5;TermStrip;;0;2;1
  138;C;KAIM3-_Graph;1193;1;1;1;323,75;135,625;TermStrip;;0;3,333333;1
  139;C;KAIM3A_Graph;1193;1;1;1;350;196,875;PointTerm;;0;1;1
  140;C;KAIM3B_Graph;1193;1;1;1;358,75;192,5;PointTerm;;0;1;1
  141;C;POOB0J_Graph;1193;1;1;1;253,75;350;TermStrip;;0;0,666666;1
  142;C;POOB0K_Graph;1193;1;1;1;288,75;284,375;TermStrip;;0;0,666666;1
  143;C;POOB2Q_Graph;1193;1;1;1;293,125;345,625;TermStrip;;0;1,333333;1
  144;C;POOB2R_Graph;1193;1;1;1;310,625;323,75;TermStrip;;0;1,333333;1
  145;C;POOB3-_Graph;1193;1;1;1;280;319,375;TermStrip;;0;2,666667;1
  146;C;SHRU2Q_Graph;1193;1;1;1;227,5;319,375;TermStrip;21;0;0,666666;1
  147;C;SHRU2R_Graph;1193;1;1;1;253,75;297,5;TermStrip;22;0;0,666666;1
  148;C;SHRU3A_Graph;1193;1;1;1;188,125;306,25;TermStrip;23;0;2,666667;1
  149;C;SHRU3B_Graph;1193;1;1;1;210;297,5;TermStrip;24;0;3;1
  150;C;SMEA2-_Graph;1193;1;1;1;380,625;367,5;TermStrip;;0;2;1
  151;C;WHHO2Q_Graph;1193;1;1;1;415,625;196,875;TermStrip;;0;1;1
  152;C;WHHO2R_Graph;1193;1;1;1;398,125;196,875;TermStrip;;0;1;1
  153;C;WHHO3-_Graph;1193;1;1;1;415,625;170,625;TermStrip;;0;2,666667;1
  154;C;Graphical Net Object100;1194;-16777216;1;1;374,7917;385;auto-transformer;27;0;1;1
  155;C;Graphical Net Object101;1194;-16777216;1;1;400,75;310,625;d_genstat;;180;1;1
  156;C;Graphical Net Object106;1194;-16777216;1;1;414,75;275,625;d_genstat;;0;1;1
  157;C;Graphical Net Object108;1194;-16777216;1;1;414,75;310,625;d_genstat;;180;1;1
  158;C;Graphical Net Object27;1194;-16777216;1;1;418,5417;382,8125;d_coupleRect;2;352;1;1
  159;C;Graphical Net Object28;1194;-16777216;1;1;332,5;223,125;d_net;;0;1;1
  160;C;Graphical Net Object29;1194;-16777216;1;1;386,75;275,625;d_load;;0;1;1
  161;C;Graphical Net Object32;1194;-16777216;1;1;446,25;188,125;d_load;;0;1;1
  162;C;Graphical Net Object33;1194;-16777216;1;1;424,375;258,125;d_load;;0;1;1
  163;C;Graphical Net Object37;1194;-16777216;1;1;444,9375;332,5;d_tr2;26;166;1;1
  164;C;Graphical Net Object47;1194;-16777216;1;1;422,9167;223,125;d_tr2;;53;1;1
  165;C;Graphical Net Object48;1194;-16777216;1;1;387,1875;286,5625;d_tr2;;74;1;1
  166;C;Graphical Net Object49;1194;-16777216;1;1;365,75;295,3125;d_tr2;;73;1;1
  167;C;Graphical Net Object50;1194;-16777216;1;1;380,3333;266,875;d_tr2;;196;1;1
  168;C;Graphical Net Object52;1194;-16777216;1;1;386,4583;385;d_genstat;11;0;1;1
  169;C;Graphical Net Object54;1194;-16777216;1;1;405,125;345,625;d_genstat;12;0;1;1
  170;C;Graphical Net Object55;1194;-16777216;1;1;398,125;420;d_genstat;7;180;1;1
  171;C;Graphical Net Object56;1194;-16777216;1;1;398,125;385;d_genstat;9;0;1;1
  172;C;Graphical Net Object58;1194;-16777216;1;1;380,625;420;d_genstat;5;180;1;1
  173;C;Graphical Net Object59;1194;-16777216;1;1;428,75;380,625;d_genstat;8;180;1;1
  174;C;Graphical Net Object60;1194;-16777216;1;1;420,875;345,625;d_genstat;4;0;1;1
  175;C;Graphical Net Object61;1194;-16777216;1;1;386,75;310,625;d_genstat;;180;1;1
  176;C;Graphical Net Object62;1194;-16777216;1;1;409,7917;385;d_genstat;3;0;1;1
  177;C;Graphical Net Object63;1194;-16777216;1;1;441,875;380,625;d_genstat;10;180;1;1
  178;C;Graphical Net Object64;1194;-16777216;1;1;436,625;345,625;d_genstat;6;0;1;1
  179;C;Graphical Net Object78;1194;-16777216;1;1;415,625;420;d_load;15;180;1;1
  180;C;Graphical Net Object79;1194;-16777216;1;1;455;380,625;d_load;16;180;1;1
  181;C;Graphical Net Object82;1194;-16777216;1;1;418,5417;271,25;d_lin;;148;1;1
  182;C;Graphical Net Object88;1194;-16777216;1;1;358,75;325,9375;d_lin;;163;1;1
  183;C;Graphical Net Object89;1194;-16777216;1;1;364,5833;240,625;Compd_lin;;270;1;1
  184;C;Graphical Net Object90;1194;-16777216;1;1;334,6875;269,0625;Compd_lin;;347;1;1
  185;C;Graphical Net Object95;1194;-16777216;1;1;400,75;275,625;d_genstat;;0;1;1
  186;C;POOB0J_Graph;1194;1;1;1;424,375;275,625;TermStrip;;0;0,666666;1
  187;C;POOB0K_Graph;1194;1;1;1;446,25;205,625;TermStrip;;0;0,666666;1
  188;C;POOB2Q_Graph;1194;1;1;1;350;297,5;TermStrip;;0;1,333333;1
  189;C;POOB2R_Graph;1194;1;1;1;393,75;240,625;TermStrip;;0;1,333333;1
  190;C;POOB3-_Graph;1194;1;1;1;393,75;293,125;TermStrip;;0;2,666667;1
  191;C;SHRU2Q_Graph;1194;1;1;1;367,5;354,375;TermStrip;21;0;0,666666;1
  192;C;SHRU2R_Graph;1194;1;1;1;437,5;301,875;TermStrip;22;0;0,666666;1
  193;C;SHRU3A_Graph;1194;1;1;1;398,125;402,5;TermStrip;23;0;2,666667;1
  194;C;SHRU3B_Graph;1194;1;1;1;428,75;363,125;TermStrip;24;0;3;1
  195;C;SMEA2-_Graph;1194;1;1;1;328,125;240,625;TermStrip;;0;1,666667;1
  196;C;Graphical Net Object16;1195;-16777216;1;1;159,6875;52,5;d_tr2;26;90;1;1
  197;C;Graphical Net Object18;1195;-16777216;1;1;202,125;43,75;d_load;16;0;1;1
  198;C;Graphical Net Object19;1195;-16777216;1;1;277,375;109,375;d_load;15;0;1;1
  199;C;Graphical Net Object20;1195;-16777216;1;1;131,25;131,25;TermStrip;25;0;1;1
  200;C;Graphical Net Object21(1);1195;-16777216;1;1;175;131,25;d_lin;14;90;1;1
  201;C;Graphical Net Object21;1195;-16777216;1;1;249,375;83,125;d_coupleRect;2;270;1;1
  202;C;Graphical Net Object22(1);1195;-16777216;1;1;131,25;87,5;d_lin;13;0;1;1
  203;C;Graphical Net Object22;1195;-16777216;1;1;183,75;78,75;d_genstat;10;180;1;1
  204;C;Graphical Net Object23(1);1195;-16777216;1;1;126,875;153,125;d_net;28;180;1;1
  205;C;Graphical Net Object23;1195;-16777216;1;1;277,375;144,375;d_genstat;7;180;1;1
  206;C;Graphical Net Object24;1195;-16777216;1;1;223,125;144,375;d_svs;20;180;1;1
  207;C;Graphical Net Object25;1195;-16777216;1;1;217,875;43,75;d_genstat;4;0;1;1
  208;C;Graphical Net Object26;1195;-16777216;1;1;291,375;109,375;d_genstat;9;0;1;1
  209;C;Graphical Net Object27;1195;-16777216;1;1;196,875;78,75;d_genstat;6;180;1;1
  210;C;Graphical Net Object28;1195;-16777216;1;1;291,375;144,375;d_genstat;11;180;1;1
  211;C;Graphical Net Object29;1195;-16777216;1;1;305,375;109,375;d_genstat;3;0;1;1
  212;C;Graphical Net Object30;1195;-16777216;1;1;305,375;144,375;d_genstat;5;180;1;1
  213;C;Graphical Net Object31;1195;-16777216;1;1;233,625;43,75;d_genstat;8;0;1;1
  214;C;Graphical Net Object32;1195;-16777216;1;1;210;78,75;d_genstat;12;180;1;1
  215;C;Graphical Net Object42;1195;-16777216;1;1;223,125;78,75;auto-transformer;27;180;1;1
  216;C;SHRU2Q_Graph;1195;1;1;1;218,75;126,875;TermStrip;21;0;0,666666;1
  217;C;SHRU2R_Graph;1195;-16777216;1;1;131,25;43,75;TermStrip;22;0;0,666666;1
  218;C;SHRU3A_Graph;1195;-16777216;1;1;284,375;126,875;TermStrip;23;0;2,666667;1
  219;C;SHRU3B_Graph;1195;1;1;1;210;61,25;TermStrip;24;0;3;1
  220;C;AIKE0A_Graph;1196;1;1;1;1255,625;1465,625;TermStrip;;0;0,666666;1
  221;C;AIKE0B_Graph;1196;1;1;1;1225;1478,75;TermStrip;;0;0,666666;1
  222;C;AIKE0G_Graph;1196;1;1;1;1010,625;1583,75;TermStrip;;0;0,666666;1
  223;C;AIKE3-_Graph;1196;1;1;1;1032,5;1588,125;TermStrip;;0;1,666667;1
  224;C;AIKE3A_Graph;1196;1;1;1;1246,875;1456,875;TermStrip;;0;1,333333;1
  225;C;AIKE3B_Graph;1196;1;1;1;1233,75;1465,625;TermStrip;;0;1,333333;1
  226;C;BERW1Q_Graph;1196;1;1;1;1347,5;1526,875;TermStrip;;0;1;1
  227;C;BERW1R_Graph;1196;1;1;1;1360,625;1535,625;TermStrip;;0;1;1
  228;C;BERW3-_Graph;1196;1;1;1;1351,875;1557,5;TermStrip;;0;3,666667;1
  229;C;BOWB0A_Graph;1196;1;1;1;1653,75;1754,375;TermStrip;;0;1;1
  230;C;BOWB0B_Graph;1196;1;1;1;1680;1754,375;TermStrip;;0;1;1
  231;C;BOWB31_Graph;1196;1;1;1;1680;1719,375;TermStrip;;0;0,666666;1
  232;C;BOWB32_Graph;1196;1;1;1;1697,5;1723,75;TermStrip;;0;0,666666;1
  233;C;COCK2-_Graph;1196;1;1;1;1592,5;1448,125;TermStrip;;0;2,333333;1
  234;C;COCK3-_Graph;1196;1;1;1;1570,625;1461,25;TermStrip;;0;3,333333;1
  235;C;COCK3U_Graph;1196;1;1;1;1540;1430,625;TermStrip;;0;0,666666;1
  236;C;COCK3V_Graph;1196;1;1;1;1548,75;1430,625;TermStrip;;0;0,666666;1
  237;C;COCK4Q_Graph;1196;1;1;1;1496,25;1413,125;TermStrip;;0;0,666666;1
  238;C;COCK4R_Graph;1196;1;1;1;1500,625;1408,75;TermStrip;;0;0,666666;1
  239;C;CRYR01_Graph;1196;1;1;1;1220,625;1343,125;TermStrip;;0;0,666666;1
  240;C;CRYR02_Graph;1196;1;1;1;1185,625;1290,625;TermStrip;;0;0,666666;1
  241;C;CRYR0G_Graph;1196;1;1;1;1019,375;1544,375;TermStrip;;0;0,666666;1
  242;C;CRYR1-_Graph;1196;1;1;1;1264,375;1316,875;TermStrip;;0;1;1
  243;C;CRYR1A_Graph;1196;1;1;1;1290,625;1369,375;TermStrip;;0;0,666666;1
...


$$IntGrfcon;FID(a:40);OP(a:1);loc_name(a:80);fold_id(p);rX:SIZEROW(i);rX:0(r);rX:1(r);rX:2(r);rX:3(r);rX:4(r);rX:5(r);rY:SIZEROW(i);rY:0(r);rY:1(r);rY:2(r);rY:3(r);rY:4(r);rY:5(r);iDatConNr(i)
  600;C;GCO_1;53;2;380,625;380,625;;;;;2;389,375;367,5;;;;;0
  601;C;GCO_1;54;2;308,920637926578;310,625;;;;;2;63,4107413391971;78,75;;;;;0
  602;C;GCO_2;54;2;307,954362073423;306,25;;;;;2;54,7142586608029;39,375;;;;;1
  603;C;GCO_1;55;2;269,72221225887;280;;;;;2;84,2592476353482;96,25;;;;;0
  604;C;GCO_2;55;2;264,02778774113;253,75;;;;;2;77,6157523646518;65,625;;;;;1
  605;C;GCO_1;56;2;301,22066959127;301,87499973923;;;;;2;325,712989156844;323,75;;;;;0
  606;C;GCO_2;56;2;303,987664176681;303,333334028721;;;;;2;317,412010843156;319,375;;;;;1
  607;C;GCO_1;57;2;276,310195657235;287,29166649282;;;;;2;347,193781561299;345,625;;;;;0
  608;C;GCO_2;57;2;267,648137589175;256,66666675359;;;;;2;348,431218438701;350;;;;;1
  609;C;GCO_1;58;2;296,483442138917;298,95833350718;;;;;2;336,71539086183;345,625;;;;;0
  610;C;GCO_2;58;2;294,141558382624;291,66666701436;;;;;2;328,28460913817;319,375;;;;;1
  611;C;GCO_1;59;2;306,748490328763;319,37500026077;;;;;2;307,515915939938;323,75;;;;;0
  612;C;GCO_2;59;2;301,376509932007;288,75;;;;;2;300,609084060062;284,375;;;;;1
  613;C;GCO_1;60;2;408,775108448719;411,25;;;;;2;187,965390840232;196,875;;;;;0
  614;C;GCO_2;60;2;406,43322453692;403,95833298564;;;;;2;179,534609159768;170,625;;;;;1
  615;C;GCO_1;61;2;398,98153547202;402,5;;;;;2;187,827520401505;196,875;;;;;0
  616;C;GCO_2;61;2;395,810130499259;392,291665971279;;;;;2;179,672479598495;170,625;;;;;1
  617;C;GCO_1;62;2;248,0625;253,75;;;;;2;297,5;297,5;;;;;0
  618;C;GCO_2;62;2;239,3125;233,625;;;;;2;297,5;297,5;;;;;1
  619;C;GCO_1;63;2;418,03125026077;439,687500521541;;;;;2;354,375;341,25;;;;;0
  620;C;GCO_2;63;2;418,03125026077;396,375;;;;;2;354,375;367,5;;;;;1
  621;C;GCO_1;64;2;419,562500312924;436,625000625849;;;;;2;301,875;341,25;;;;;0
  622;C;GCO_2;64;2;419,562500312924;402,5;;;;;2;301,875;262,5;;;;;0
  623;C;GCO_1;65;2;395,9375;398,125;;;;;2;170,625;144,375;;;;;0
  624;C;GCO_2;65;2;395,9375;393,75;;;;;2;170,625;196,875;;;;;1
  625;C;GCO_1;66;2;424,375;428,75;;;;;2;170,625;144,375;;;;;0
  626;C;GCO_2;66;2;424,375;420;;;;;2;170,625;196,875;;;;;1
  627;C;GCO_1;67;2;398,5625;399;;;;;2;229,6875;262,5;;;;;0
  628;C;GCO_2;67;2;398,5625;398,125;;;;;2;229,6875;196,875;;;;;1
  629;C;GCO_1;68;2;385,4375;385;;;;;2;315;262,5;;;;;0
  630;C;GCO_2;68;2;385,4375;385,875;;;;;2;315;367,5;;;;;1
  631;C;GCO_1;69;2;412,5625;409,5;;;;;2;229,6875;262,5;;;;;0
  632;C;GCO_2;69;2;412,5625;415,625;;;;;2;229,6875;196,875;;;;;1
  633;C;GCO_1;70;2;282,1875;310,625;;;;;2;310,625;323,75;;;;;0
  634;C;GCO_2;70;2;282,1875;253,75;;;;;2;310,625;297,5;;;;;1
  635;C;GCO_1;71;2;257,39583324641;287,29166649282;;;;;2;332,5;345,625;;;;;0
  636;C;GCO_2;71;2;257,39583324641;227,5;;;;;2;332,5;319,375;;;;;1
  637;C;GCO_1;72;2;280;280;;;;;2;306,25;319,375;;;;;0
  638;C;GCO_1;73;2;331,91666675359;298,95833350718;;;;;2;356,5625;345,625;;;;;0
  639;C;GCO_2;73;2;331,91666675359;364,875;;;;;2;356,5625;367,5;;;;;1
  640;C;GCO_1;74;2;343;310,625;;;;;2;345,625;323,75;;;;;0
  641;C;GCO_2;74;2;343;375,375;;;;;2;345,625;367,5;;;;;1
  642;C;GCO_1;75;2;167,124999374151;167,124999374151;;;;;2;293,125;306,25;;;;;0
  643;C;GCO_1;76;2;167,124999374151;167,124999374151;;;;;2;319,375;306,25;;;;;0
  644;C;GCO_1;77;2;181,124999791384;181,124999791384;;;;;2;293,125;306,25;;;;;0
  645;C;GCO_1;78;2;415,625;415,625;;;;;2;157,5;170,625;;;;;0
  646;C;GCO_1;79;2;186,375;186,375;;;;;2;284,375;297,5;;;;;0
  647;C;GCO_1;80;2;196,875;196,875;;;;;2;310,625;297,5;;;;;0
  648;C;GCO_1;81;2;202,125;202,125;;;;;2;284,375;297,5;;;;;0
  649;C;GCO_1;82;2;181,124999791384;181,124999791384;;;;;2;319,375;306,25;;;;;0
  650;C;GCO_1;83;2;210;210;;;;;2;310,625;297,5;;;;;0
  651;C;GCO_1;84;2;217,875;217,875;;;;;2;284,375;297,5;;;;;0
  652;C;GCO_1;85;2;195,125000208616;195,125000208616;;;;;2;293,125;306,25;;;;;0
  653;C;GCO_1;86;2;301,875;301,875;;;;;2;26,25;39,375;;;;;0
  654;C;GCO_1;87;2;249,375;249,375;;;;;2;52,5;65,625;;;;;0
  655;C;GCO_1;88;2;450,759388405056;461,124999791384;;;;;2;323,17044560726;341,25;;;;;0
  656;C;GCO_2;88;2;446,407277357607;436,041665971279;;;;;2;315,57955439274;297,5;;;;;1
  657;C;GCO_1;89;2;462,755480086847;473,374999374151;;;;;2;323,148546473198;341,25;;;;;0
  658;C;GCO_2;89;2;458,327852272944;447,70833298564;;;;;2;315,601453526802;297,5;;;;;1
  659;C;GCO_1;90;2;435,021171537223;428,75;;;;;2;136,806344385333;144,375;;;;;0
  660;C;GCO_2;90;2;440,603827717719;446,874999254942;;;;;2;130,068655614667;122,5;;;;;1
  661;C;GCO_1;91;2;393,57825079243;398,125;;;;;2;137,14153495964;144,375;;;;;0
  662;C;GCO_2;91;2;388,921749952628;384,375000745058;;;;;2;129,73346504036;122,5;;;;;1
  663;C;GCO_1;92;2;459,375;459,375;;;;;2;284,375;297,5;;;;;0
  664;C;GCO_1;93;2;415,625;415,625;;;;;2;183,75;170,625;;;;;0
  665;C;GCO_1;94;2;323,75;323,75;;;;;2;122,5;135,625;;;;;0
  666;C;GCO_1;95;2;424,374999791384;424,374999791384;;;;;2;109,375;122,5;;;;;0
  667;C;GCO_1;96;2;197,264701674016;209,125000625849;;;;;2;302,160241841617;306,25;;;;;0
  668;C;GCO_2;96;2;195,610298951833;183,75;;;;;2;301,589758158383;297,5;;;;;1
  669;C;GCO_1;97;2;343,348050997259;338,33333298564;;;;;2;161,952268776386;135,625;;;;;0
  670;C;GCO_2;97;2;344,985281988381;350;;;;;2;170,547731223614;196,875;;;;;1
  671;C;GCO_1;98;2;355,386956646425;352,916665971279;;;;;2;159,710331211477;135,625;;;;;0
  672;C;GCO_2;98;2;356,279709324854;358,75;;;;;2;168,414668788523;192,5;;;;;1
  673;C;GCO_1;99;2;195,125000208616;195,125000208616;;;;;2;319,375;306,25;;;;;0
  674;C;GCO_1;100;2;223,125;223,125;;;;;2;310,625;297,5;;;;;0
  675;C;GCO_1;101;2;396,875000447035;396,875000447035;;;;;2;135,625;122,5;;;;;0
  676;C;GCO_1;102;2;459,375;459,375;;;;;2;310,625;297,5;;;;;0
  677;C;GCO_1;103;2;294,583334028721;294,583334028721;;;;;2;148,75;135,625;;;;;0
  678;C;GCO_1;104;2;256,666665971279;256,666665971279;;;;;2;332,5;319,375;;;;;0
  679;C;GCO_1;105;2;227,5;227,5;;;;;2;306,25;319,375;;;;;0
  680;C;GCO_2;105;2;227,5;209,125000625849;;;;;2;297,5;306,25;;;;;1
  681;C;GCO_3;105;2;231,875;236,25;;;;;2;301,875;297,5;;;;;2
  682;C;GCO_1;106;2;389,375000625849;389,375000625849;;;;;2;109,375;122,5;;;;;0
  683;C;GCO_1;107;2;441,874999478459;441,874999478459;;;;;2;284,375;297,5;;;;;0
  684;C;GCO_1;108;2;338,33333298564;338,33333298564;;;;;2;122,5;135,625;;;;;0
  685;C;GCO_1;109;2;262,499999478459;262,499999478459;;;;;2;306,25;319,375;;;;;0
  686;C;GCO_1;110;2;398,124999478459;398,124999478459;;;;;2;157,5;170,625;;;;;0
  687;C;GCO_1;111;2;409,375000149012;409,375000149012;;;;;2;135,625;122,5;;;;;0
  688;C;GCO_1;112;2;471,041667014361;471,041667014361;;;;;2;310,625;297,5;;;;;0
  689;C;GCO_1;113;2;323,75;323,75;;;;;2;148,75;135,625;;;;;0
  690;C;GCO_1;114;2;268,33333298564;268,33333298564;;;;;2;332,5;319,375;;;;;0
  691;C;GCO_1;115;2;427,291667014361;427,291667014361;;;;;2;183,75;170,625;;;;;0
  692;C;GCO_1;116;2;352,916665971279;352,916665971279;;;;;2;122,5;135,625;;;;;0
  693;C;GCO_1;117;2;245;245;;;;;2;78,75;65,625;;;;;0
  694;C;GCO_1;118;2;297,5;297,5;;;;;2;52,5;39,375;;;;;0
  695;C;GCO_1;119;2;297,500000521541;297,500000521541;;;;;2;306,25;319,375;;;;;0
  696;C;GCO_1;120;2;433,125000521541;433,125000521541;;;;;2;157,5;170,625;;;;;0
  697;C;GCO_1;121;2;406,875000208616;406,875000208616;;;;;2;109,375;122,5;;;;;0
  698;C;GCO_1;122;2;476,875000521541;476,875000521541;;;;;2;284,375;297,5;;;;;0
  699;C;GCO_1;123;2;309,89583350718;310,625;;;;;2;107,1875;78,75;;;;;0
  700;C;GCO_2;123;2;309,89583350718;309,16666701436;;;;;2;107,1875;135,625;;;;;0
  701;C;GCO_1;124;2;287,29166701436;280;;;;;2;115,9375;96,25;;;;;0
  702;C;GCO_2;124;2;287,29166701436;294,583334028721;;;;;2;115,9375;135,625;;;;;0
  703;C;GCO_1;125;2;365,716919247084;378;;;;;2;233,711529485353;262,5;;;;;0
  704;C;GCO_2;125;2;362,283080752916;350;;;;;2;225,663470514647;196,875;;;;;1
  705;C;GCO_1;126;2;375,336240301509;388,5;;;;;2;231,526447768256;262,5;;;;;0
  706;C;GCO_2;126;2;371,913759698491;358,75;;;;;2;223,473552231744;192,5;;;;;1
  707;C;GCO_1;127;2;482,708334028721;482,708334028721;;;;;2;310,625;297,5;;;;;0
  708;C;GCO_1;128;2;421,874999850988;421,874999850988;;;;;2;135,625;122,5;;;;;0
  709;C;GCO_1;129;2;288,75;288,75;;;;;2;271,25;284,375;;;;;0
  710;C;GCO_1;130;2;309,16666701436;309,16666701436;;;;;2;148,75;135,625;;;;;0
  711;C;GCO_1;131;2;250,83333324641;250,83333324641;;;;;2;336,875;350;;;;;0
  712;C;GCO_1;132;2;280;280;;;;;2;332,5;319,375;;;;;0
  713;C;GCO_1;133;2;438,958334028721;438,958334028721;;;;;2;183,75;170,625;;;;;0
  714;C;GCO_1;134;2;448,875000208616;448,875000208616;;;;;2;328,125;341,25;;;;;0
  715;C;GCO_1;135;2;441,874999374151;441,874999374151;;;;;2;109,375;122,5;;;;;0
  716;C;GCO_1;136;2;434,374999552965;434,374999552965;;;;;2;135,625;122,5;;;;;0
  717;C;GCO_1;154;2;374,791665971279;374,791665971279;;;;;2;389,375;402,5;;;;;1
  718;C;GCO_2;154;2;374,791665971279;367,5;;;;;2;380,625;354,375;;;;;0
  719;C;GCO_3;154;2;379,166665971279;402,5;;;;;2;385;363,125;;;;;2
  720;C;GCO_1;155;2;400,750000208616;400,750000208616;;;;;2;306,25;293,125;;;;;0
  721;C;GCO_1;156;2;414,750000625849;414,750000625849;;;;;2;280;293,125;;;;;0
  722;C;GCO_1;157;2;414,750000625849;414,750000625849;;;;;2;306,25;293,125;;;;;0
  723;C;GCO_1;158;2;418,669897107772;421,458334028721;;;;;2;383,678053027344;402,5;;;;;0
  724;C;GCO_2;158;2;418,413436920949;415,625;;;;;2;381,946946972656;363,125;;;;;1
  725;C;GCO_1;159;2;332,499999895692;332,499999895692;;;;;2;227,5;240,625;;;;;0
  726;C;GCO_1;160;2;386,749999791384;386,749999791384;;;;;2;280;293,125;;;;;0
  727;C;GCO_1;161;2;446,25;446,25;;;;;2;192,5;205,625;;;;;0
  728;C;GCO_1;162;2;424,375;424,375;;;;;2;262,5;275,625;;;;;0
  729;C;GCO_1;163;2;443,905011689559;437,5;;;;;2;328,248577545244;301,875;;;;;0
  730;C;GCO_2;163;2;445,969988310441;452,375;;;;;2;336,751422454756;363,125;;;;;1
  731;C;GCO_1;164;2;419,416666758284;399,58333350718;;;;;2;225,750000006258;240,625;;;;;0
  732;C;GCO_2;164;2;426,416666748896;446,25;;;;;2;220,499999993741;205,625;;;;;1
  733;C;GCO_1;165;2;382,990275930626;350;;;;;2;287,796977667463;297,5;;;;;0
  734;C;GCO_2;165;2;391,384724069374;424,375;;;;;2;285,328022332537;275,625;;;;;1
  735;C;GCO_1;166;2;361,574149937086;358,75000026077;;;;;2;296,61745317026;297,5;;;;;0
  736;C;GCO_2;166;2;369,925849697836;372,749999374151;;;;;2;294,00754682974;293,125;;;;;1
  737;C;GCO_1;167;2;381,547568947976;387,91666649282;;;;;2;262,671875459719;240,625;;;;;0
  738;C;GCO_2;167;2;379,119096918995;372,749999374151;;;;;2;271,078124540281;293,125;;;;;1
  739;C;GCO_1;168;2;386,45833298564;386,45833298564;;;;;2;389,375;402,5;;;;;0
  740;C;GCO_1;169;2;405,125;405,125;;;;;2;350;363,125;;;;;0
  741;C;GCO_1;170;2;398,125;398,125;;;;;2;415,625;402,5;;;;;0
  742;C;GCO_1;171;2;398,125;398,125;;;;;2;389,375;402,5;;;;;0
  743;C;GCO_1;172;2;380,624999478459;380,624999478459;;;;;2;415,625;402,5;;;;;0
  744;C;GCO_1;173;2;428,75;428,75;;;;;2;376,25;363,125;;;;;0
  745;C;GCO_1;174;2;420,875;420,875;;;;;2;350;363,125;;;;;0
  746;C;GCO_1;175;2;386,749999791384;386,749999791384;;;;;2;306,25;293,125;;;;;0
  747;C;GCO_1;176;2;409,79166701436;409,79166701436;;;;;2;389,375;402,5;;;;;0
  748;C;GCO_1;177;2;441,875;441,875;;;;;2;376,25;363,125;;;;;0
  749;C;GCO_1;178;2;436,625;436,625;;;;;2;350;363,125;;;;;0
  750;C;GCO_1;179;2;415,625000521541;415,625000521541;;;;;2;415,625;402,5;;;;;0
  751;C;GCO_1;180;2;455;455;;;;;2;376,25;363,125;;;;;0
  752;C;GCO_1;181;2;418,54166675359;399,58333350718;;;;;2;271,25;240,625;;;;;0
  753;C;GCO_2;181;2;418,54166675359;437,5;;;;;2;271,25;301,875;;;;;1
  754;C;GCO_1;182;2;358,75;350;;;;;2;325,9375;297,5;;;;;0
  755;C;GCO_2;182;2;358,75;367,5;;;;;2;325,9375;354,375;;;;;1
  756;C;GCO_1;183;2;364,583333089948;387,91666649282;;;;;2;240,625;240,625;;;;;0
  757;C;GCO_2;183;2;364,583333089948;341,249999687076;;;;;2;240,625;240,625;;;;;1
  758;C;GCO_1;184;2;334,687499869615;341,24999973923;;;;;2;269,0625;297,5;;;;;0
  759;C;GCO_2;184;2;334,687499869615;328,125;;;;;2;269,0625;240,625;;;;;1
  760;C;GCO_1;185;2;400,750000208616;400,750000208616;;;;;2;280;293,125;;;;;0
  761;C;GCO_1;196;3;155,3125;135,625;135,625;;;;3;52,5;52,5;43,75;;;;0
  762;C;GCO_2;196;3;164,0625;188,125;188,125;;;;3;52,5;52,5;61,25;;;;1
  763;C;GCO_1;197;2;202,125;202,125;;;;;2;48,125;61,25;;;;;0
  764;C;GCO_1;198;2;277,375;277,374999791384;;;;;2;113,75;126,875;;;;;0
  765;C;GCO_1;200;2;175;135,625;;;;;2;131,25;131,25;;;;;0
  766;C;GCO_2;200;3;175;214,375;214,375;;;;3;131,25;131,25;126,875;;;;1
  767;C;GCO_1;201;3;250,25;262,5;262,5;;;;3;83,125;83,125;126,875;;;;0
  768;C;GCO_2;201;3;248,5;236,25;236,25;;;;3;83,125;83,125;61,25;;;;1
  769;C;GCO_1;202;2;131,25;131,25;;;;;2;87,5;131,25;;;;;0
  770;C;GCO_2;202;2;131,25;131,25;;;;;2;87,5;43,75;;;;;1
  771;C;GCO_1;203;2;183,75;183,75;;;;;2;74,375;61,25;;;;;0
  772;C;GCO_1;204;2;126,875;126,875;;;;;2;148,75;131,25;;;;;0
  773;C;GCO_1;205;2;277,375;277,374999791384;;;;;2;140;126,875;;;;;0
  774;C;GCO_1;206;2;223,125;223,125;;;;;2;140;126,875;;;;;0
  775;C;GCO_1;207;2;217,875;217,875;;;;;2;48,125;61,25;;;;;0
  776;C;GCO_1;208;2;291,375;291,375000208616;;;;;2;113,75;126,875;;;;;0
  777;C;GCO_1;209;2;196,875;196,875;;;;;2;74,375;61,25;;;;;0
  778;C;GCO_1;210;2;291,375;291,375000208616;;;;;2;140;126,875;;;;;0
  779;C;GCO_1;211;2;305,375;305,375000625849;;;;;2;113,75;126,875;;;;;0
  780;C;GCO_1;212;2;305,375;305,375000625849;;;;;2;140;126,875;;;;;0
  781;C;GCO_1;213;2;233,625;233,625;;;;;2;48,125;61,25;;;;;0
  782;C;GCO_1;214;2;210;210;;;;;2;74,375;61,25;;;;;0
  783;C;GCO_1;215;2;223,125;223,125;;;;;2;74,375;61,25;;;;;2
  784;C;GCO_2;215;2;223,125;263,374999374151;;;;;2;83,125;126,875;;;;;1
  785;C;GCO_3;215;2;218,75;218,75;;;;;2;78,75;126,875;;;;;0
  786;C;GCO_1;277;2;1375;1411,25;;;;;2;1570,625;1544,375;;;;;0
  787;C;GCO_2;277;2;1375;1338,75;;;;;2;1570,625;1596,875;;;;;1
  788;C;GCO_1;278;2;1470;1470;;;;;2;1651,5625;1627,5;;;;;0
  789;C;GCO_2;278;2;1470;1470;;;;;2;1651,5625;1675,625;;;;;1
  790;C;GCO_1;279;3;1373,75;1386,875;1386,875;;;;3;1286,25;1286,25;1316,875;;;;0
  791;C;GCO_2;279;3;1373,75;1360,625;1360,625;;;;3;1286,25;1286,25;1229,375;;;;1
  792;C;GCO_1;280;2;1453,95833324641;1481,66666649282;;;;;2;1548,75;1548,75;;;;;0
  793;C;GCO_2;280;2;1453,95833324641;1426,25;;;;;2;1548,75;1548,75;;;;;1
  794;C;GCO_1;281;2;1523,22916675359;1493,33333350718;;;;;2;1511,5625;1548,75;;;;;0
  795;C;GCO_2;281;2;1523,22916675359;1553,125;;;;;2;1511,5625;1474,375;;;;;0
  796;C;GCO_1;282;3;1441,5625;1491,875;1491,875;;;;3;1286,25;1286,25;1316,875;;;;0
  797;C;GCO_2;282;4;1441,5625;1391,25;1391,25;1382,5;;;4;1286,25;1286,25;1229,375;1229,375;;;1
  798;C;GCO_1;283;2;1354,0625;1343,125;;;;;2;1625,3125;1596,875;;;;;0
  799;C;GCO_2;283;2;1354,0625;1365;;;;;2;1625,3125;1653,75;;;;;1
...


$$IntGrfnet;FID(a:40);OP(a:1);loc_name(a:80);fold_id(p);snap_on(i);ortho_on(i);pDataFolder(p)
  1193;C;SPTL(1);;1;1;19
  1194;C;SPTL(2);;1;1;19
  1195;C;SPTL(3);;1;1;19
  1196;C;SPTL;;1;1;19


$$StaCubic;FID(a:40);OP(a:1);loc_name(a:80);fold_id(p);obj_bus(i);obj_id(p);it2p1(i);it2p2(i);it2p3(i)
  1197;C;Cub_1;21;0;20;0;1;2
  1198;C;tr3_SHRU2Q_SHRU3-_1;21;0;27;0;1;2
  1199;C;trf_SHRU2Q_SHRU3-_1;21;1;14;0;1;2
  1200;C;Cub_1;22;1;13;0;1;2
  1201;C;trf_SHRU2R_SHRU3-_1;22;0;26;0;1;2
  1202;C;EMH_SHRU3A_H2;23;0;3;0;1;2
  1203;C;EMO_SHRU3A_N2;23;0;5;0;1;2
  1204;C;EMP_SHRU3A_P2;23;0;7;0;1;2
  1205;C;EMS_SHRU3A_S2;23;0;9;0;1;2
  1206;C;EMW_SHRU3A_W2;23;0;11;0;1;2
  1207;C;brk_SHRU3A_SHRU3B_1;23;0;2;0;1;2
  1208;C;lnec_SHRU2Q_SHRU3A_1;23;0;;0;1;2
  1209;C;lod_SHRU3A_1;23;0;15;0;1;2
  1210;C;tr3_SHRU2Q_SHRU3-_1;23;1;27;0;1;2
  1211;C;EMH_SHRU3B_H2;24;0;4;0;1;2
  1212;C;EMO_SHRU3B_N2;24;0;6;0;1;2
  1213;C;EMP_SHRU3B_P2;24;0;8;0;1;2
  1214;C;EMS_SHRU3B_S2;24;0;10;0;1;2
  1215;C;EMW_SHRU3B_W2;24;0;12;0;1;2
  1216;C;brk_SHRU3A_SHRU3B_1;24;1;2;0;1;2
  1217;C;lnec_SHRU2Q_SHRU3B_1;24;0;;0;1;2
  1218;C;lnec_SHRU2R_SHRU3B_1;24;0;;0;1;2
  1219;C;lod_SHRU3B_1;24;0;16;0;1;2
  1220;C;tr3_SHRU2Q_SHRU3-_1;24;2;27;0;1;2
  1221;C;trf_SHRU2R_SHRU3B_1;24;1;26;0;1;2
  1222;C;Cub_1;25;0;14;0;1;2
  1223;C;Cub_2;25;0;13;0;1;2
  1224;C;Cub_3;25;0;28;0;1;2


$$StaSwitch;FID(a:40);OP(a:1);loc_name(a:80);fold_id(p);on_off(i);typ_id(p);aUsage(a)
  1225;C;Switch;1197;1;;cbk
  1226;C;Switch;1198;1;;cbk
  1227;C;Switch;1200;1;;cbk
  1228;C;Switch;1202;1;;cbk
  1229;C;Switch;1203;1;;cbk
  1230;C;Switch;1204;1;;cbk
  1231;C;Switch;1205;1;;cbk
  1232;C;Switch;1206;1;;cbk
  1233;C;Switch;1208;1;;cbk
  1234;C;Switch;1209;1;;cbk
  1235;C;Switch;1210;1;;cbk
  1236;C;Switch;1211;1;;cbk
  1237;C;Switch;1212;1;;cbk
  1238;C;Switch;1213;1;;cbk
  1239;C;Switch;1214;1;;cbk
  1240;C;Switch;1215;1;;cbk
  1241;C;Switch;1218;1;;cbk
  1242;C;Switch;1219;1;;cbk
  1243;C;Switch;1220;0;;cbk
  1244;C;Switch;1221;1;;cbk
  1245;C;Switch;1222;1;;cbk
  1246;C;Switch;1223;1;;cbk
  1247;C;Switch;1224;1;;cbk


$$TypLne;FID(a:40);OP(a:1);loc_name(a:80);fold_id(p);uline(r);sline(r);InomAir(r);cohl_(i);rline(r);xline(r);rline0(r);xline0(r);Ithr(r);tmax(r);rtemp(r);systp(i);nlnph(i);nneutral(i);frnom(r);mlei(a:4);bline(r);bline0(r)
  1248;C;275kV Short;39;275;10;1;1;1e-05;0,0001;1e-05;0,0001;0;80;80;0;3;0;50;Al;0;0


$$TypLod;FID(a:40);OP(a:1);loc_name(a:80);fold_id(p);systp(i);phtech(i);aP(r);bP(r);kpu0(r);kpu1(r);kpu(r);aQ(r);bQ(r);kqu0(r);kqu1(r);kqu(r)
  1249;C;Heavy Industrial (pf 0.95) [P1/Q2];41;0;0;0,3;0,7;2;0;0;0,07;0,57;2;7;-2


$$TypTr2;FID(a:40);OP(a:1);loc_name(a:80);fold_id(p);nt2ph(i);strn(r);frnom(r);utrn_h(r);utrn_l(r);uktr(r);pcutr(r);uk0tr(r);ur0tr(r);tr2cn_h(a:4);tr2cn_l(a:4);nt2ag(r);curmg(r);pfe(r);zx0hl_n(r);itapch(i);tap_side(i);dutap(r);phitr(r);nntap0(i);ntpmn(i);ntpmx(i);manuf(a:40)
  1250;C;Type_SHRU_SGT2 (275/33kV) TC;42;3;120;50;275;33;28,47;419,6426;28,278;0,851724;YN;D;0;0,0333;31,003;100;0;0;1,666667;180;7;1;19;SGB


$$TypTr3;FID(a:40);OP(a:1);loc_name(a:80);fold_id(p);strn3_h(r);strn3_m(r);strn3_l(r);utrn3_h(r);utrn3_m(r);utrn3_l(r);uktr3_h(r);uktr3_m(r);uktr3_l(r);pcut3_h(r);pcut3_m(r);pcut3_l(r);uk0hm(r);uk0ml(r);uk0hl(r);ur0hm(r);ur0ml(r);ur0hl(r);tr3cn_h(a:4);tr3cn_m(a:4);tr3cn_l(a:4);nt3ag_h(r);nt3ag_m(r);nt3ag_l(r);curm3(r);pfe(r);du3tp_h(r);ph3tr_h(r);n3tp0_h(i);n3tmn_h(i);n3tmx_h(i);du3tp_m(r);ph3tr_m(r);n3tp0_m(i);n3tmn_m(i);n3tmx_m(i);du3tp_l(r);ph3tr_l(r);n3tp0_l(i);n3tmn_l(i);n3tmx_l(i);itapos(i);i3loc(i)
  1251;C;ttr3_SHRU2Q_SHRU3AB (TC 2024);42;120;60;60;275;33;33;17,14;28,76;17,28;192,6;368,3;193,7;9,63;0,0001;9,63;0,192561;1,9996e-06;0,192561;YN;D;D;0;0;0;0;0;0;0;0;0;0;0;0;0;0;0;0;0;0;0;0;0;0
